ID UCRM WING
SOL 1
CEND
MAXLINES=999999999
TITLE=crm_reference_mda
SPC = 1
DISP(PUNCH) = ALL
STRESS(PUNCH) = ALL
SUBCASE 1
LOAD = 203
BEGIN BULK
PARAM,AUTOSPC,1
PARAM,GRDPNT,0
$ Elements and Element Properties for region : prod.13
PROD     13      1      .0066339
$ Pset: "prod.13" will be imported as: "prod.13"
CROD     282     13      33553   33603
CROD     283     13      33603   33608
CROD     284     13      33608   33612
CROD     285     13      33612   33614
CROD     286     13      33614   33618
CROD     287     13      33618   33624
CROD     288     13      33624   33627
CROD     289     13      33627   33630
CROD     290     13      33630   33581
CROD     338     13      33566   33602
CROD     339     13      33602   33607
CROD     340     13      33607   33611
CROD     341     13      33611   33617
CROD     342     13      33617   33621
CROD     343     13      33621   33623
CROD     344     13      33623   33626
CROD     345     13      33626   33629
CROD     346     13      33629   33580
CROD     395     13      33554   33604
CROD     396     13      33604   33609
$ ... 12 like lines cut
$ Elements and Element Properties for region : prod.14
PROD     14      1      .0048852
$ Pset: "prod.14" will be imported as: "prod.14"
CROD     291     14      33581   33636
CROD     292     14      33636   33640
CROD     293     14      33640   33644
CROD     294     14      33644   33648
CROD     295     14      33648   33552
CROD     296     14      33552   33652
CROD     297     14      33652   33656
CROD     298     14      33656   33659
CROD     299     14      33659   33662
CROD     300     14      33662   33600
CROD     301     14      33600   33666
CROD     302     14      33666   33670
CROD     303     14      33670   33674
CROD     347     14      33580   33635
CROD     348     14      33635   33639
CROD     349     14      33639   33643
CROD     350     14      33643   33647
CROD     351     14      33647   33567
CROD     352     14      33567   33651
CROD     353     14      33651   33655
$ ... 26 like lines cut
$ Elements and Element Properties for region : prod.15
PROD     15      1      .0034935
$ Pset: "prod.15" will be imported as: "prod.15"
CROD     304     15      33674   33677
CROD     305     15      33677   33556
CROD     306     15      33556   33682
CROD     307     15      33682   33687
CROD     308     15      33687   33690
CROD     309     15      33690   33693
CROD     310     15      33693   33697
CROD     311     15      33697   33700
CROD     312     15      33700   33704
CROD     313     15      33704   33708
CROD     360     15      33673   33676
CROD     361     15      33676   33570
CROD     363     15      33570   33681
CROD     364     15      33681   33686
CROD     365     15      33686   33689
CROD     366     15      33689   33692
CROD     367     15      33692   33696
CROD     368     15      33696   33699
CROD     369     15      33699   33703
CROD     370     15      33703   33707
$ ... 22 like lines cut
$ Elements and Element Properties for region : prod.16
PROD     16      1      .0021121
$ Pset: "prod.16" will be imported as: "prod.16"
CROD     314     16      33708   33559
CROD     315     16      33559   33713
CROD     316     16      33713   33717
CROD     317     16      33717   33720
CROD     318     16      33720   33724
CROD     319     16      33724   33728
CROD     320     16      33728   33731
CROD     321     16      33731   33561
CROD     322     16      33561   33735
CROD     323     16      33735   33592
CROD     371     16      33707   33572
CROD     372     16      33572   33712
CROD     373     16      33712   33716
CROD     374     16      33716   33719
CROD     375     16      33719   33723
CROD     376     16      33723   33727
CROD     377     16      33727   33730
CROD     378     16      33730   33574
CROD     379     16      33574   33734
CROD     380     16      33734   33593
$ ... 22 like lines cut
$ Elements and Element Properties for region : prod.17
PROD     17      1      9.135-4
$ Pset: "prod.17" will be imported as: "prod.17"
CROD     324     17      33592   33738
CROD     325     17      33738   33742
CROD     326     17      33742   33746
CROD     327     17      33746   33752
CROD     328     17      33752   33756
CROD     329     17      33756   33562
CROD     330     17      33562   33760
CROD     331     17      33760   33597
CROD     381     17      33593   33741
CROD     382     17      33741   33745
CROD     383     17      33745   33749
CROD     384     17      33749   33751
CROD     385     17      33751   33755
CROD     386     17      33755   33577
CROD     387     17      33577   33759
CROD     388     17      33759   33596
CROD     434     17      33595   33560
CROD     435     17      33560   33732
CROD     436     17      33732   33736
CROD     437     17      33736   33739
$ ... 14 like lines cut
$ Elements and Element Properties for region : prod.18
PROD     18      1      3.735-4
$ Pset: "prod.18" will be imported as: "prod.18"
CROD     332     18      33597   33766
CROD     333     18      33766   33770
CROD     334     18      33770   33774
CROD     335     18      33774   33778
CROD     336     18      33778   33781
CROD     337     18      33781   33565
CROD     389     18      33596   33765
CROD     390     18      33765   33769
CROD     391     18      33769   33773
CROD     392     18      33773   33777
CROD     393     18      33777   33780
CROD     394     18      33780   33579
CROD     443     18      33563   33761
CROD     444     18      33761   33763
CROD     445     18      33763   33767
CROD     446     18      33767   33771
CROD     447     18      33771   33775
CROD     448     18      33775   33779
CROD     449     18      33779   33782
CROD     450     18      33782   33564
$ ... 8 like lines cut
$ Elements and Element Properties for region : pshell.1
PSHELL   1       1      .00635   1               1
$ Pset: "pshell.1" will be imported as: "pshell.1"
CQUAD4   1       1       33553   33603   33604   33554   0.      0.
CQUAD4   2       1       33603   33608   33609   33604   0.      0.
CQUAD4   3       1       33608   33612   33613   33609   0.      0.
CQUAD4   4       1       33612   33614   33615   33613   0.      0.
CQUAD4   5       1       33614   33618   33619   33615   0.      0.
CQUAD4   6       1       33618   33624   33625   33619   0.      0.
CQUAD4   7       1       33624   33627   33583   33625   0.      0.
CQUAD4   8       1       33627   33630   33631   33583   0.      0.
CQUAD4   9       1       33630   33581   33632   33631   0.      0.
CQUAD4   10      1       33581   33636   33637   33632   0.      0.
CQUAD4   11      1       33636   33640   33641   33637   0.      0.
CQUAD4   12      1       33640   33644   33645   33641   0.      0.
CQUAD4   13      1       33644   33648   33649   33645   0.      0.
CQUAD4   14      1       33648   33552   33555   33649   0.      0.
CQUAD4   57      1       33554   33569   33566   33553   0.      0.
CQUAD4   58      1       33604   33605   33602   33603   0.      0.
CQUAD4   59      1       33608   33609   33606   33607   0.      0.
CQUAD4   60      1       33612   33613   33610   33611   0.      0.
CQUAD4   61      1       33614   33615   33616   33617   0.      0.
CQUAD4   62      1       33618   33619   33620   33621   0.      0.
$ ... 22 like lines cut
$ Elements and Element Properties for region : pshell.2
PSHELL   2       1      .005334  1               1
$ Pset: "pshell.2" will be imported as: "pshell.2"
CQUAD4   15      2       33552   33652   33653   33555   0.      0.
CQUAD4   16      2       33652   33656   33657   33653   0.      0.
CQUAD4   17      2       33656   33659   33586   33657   0.      0.
CQUAD4   18      2       33659   33662   33663   33586   0.      0.
CQUAD4   19      2       33662   33600   33599   33663   0.      0.
CQUAD4   20      2       33600   33666   33667   33599   0.      0.
CQUAD4   21      2       33666   33670   33671   33667   0.      0.
CQUAD4   22      2       33670   33674   33675   33671   0.      0.
CQUAD4   23      2       33674   33677   33678   33675   0.      0.
CQUAD4   24      2       33677   33556   33557   33678   0.      0.
CQUAD4   96      2       33678   33677   33676   33679   0.      0.
CQUAD4   97      2       33675   33674   33673   33672   0.      0.
CQUAD4   98      2       33671   33670   33669   33668   0.      0.
CQUAD4   99      2       33667   33666   33665   33664   0.      0.
CQUAD4   100     2       33599   33600   33601   33598   0.      0.
CQUAD4   101     2       33663   33662   33661   33660   0.      0.
CQUAD4   102     2       33586   33659   33658   33587   0.      0.
CQUAD4   103     2       33657   33656   33655   33654   0.      0.
CQUAD4   104     2       33653   33652   33651   33650   0.      0.
CQUAD4   105     2       33552   33555   33568   33567   0.      0.
$ ... 10 like lines cut
$ Elements and Element Properties for region : pshell.3
PSHELL   3       1      .004572  1               1
$ Pset: "pshell.3" will be imported as: "pshell.3"
CQUAD4   25      3       33556   33682   33683   33557   0.      0.
CQUAD4   26      3       33682   33687   33684   33683   0.      0.
CQUAD4   27      3       33687   33690   33691   33684   0.      0.
CQUAD4   28      3       33690   33693   33591   33691   0.      0.
CQUAD4   29      3       33693   33697   33694   33591   0.      0.
CQUAD4   30      3       33697   33700   33701   33694   0.      0.
CQUAD4   31      3       33700   33704   33705   33701   0.      0.
CQUAD4   32      3       33704   33708   33709   33705   0.      0.
CQUAD4   33      3       33708   33559   33558   33709   0.      0.
CQUAD4   87      3       33709   33708   33707   33706   0.      0.
CQUAD4   88      3       33705   33704   33703   33702   0.      0.
CQUAD4   89      3       33701   33700   33699   33698   0.      0.
CQUAD4   90      3       33694   33697   33696   33695   0.      0.
CQUAD4   91      3       33591   33693   33692   33590   0.      0.
CQUAD4   92      3       33691   33690   33689   33688   0.      0.
CQUAD4   93      3       33684   33687   33686   33685   0.      0.
CQUAD4   94      3       33683   33682   33681   33680   0.      0.
CQUAD4   95      3       33557   33556   33570   33571   0.      0.
CQUAD4   138     3       33571   33680   33681   33570   0.      0.
CQUAD4   139     3       33680   33685   33686   33681   0.      0.
$ ... 7 like lines cut
$ Elements and Element Properties for region : pshell.4
PSHELL   4       1      .003302  1               1
$ Pset: "pshell.4" will be imported as: "pshell.4"
CQUAD4   34      4       33559   33713   33710   33558   0.      0.
CQUAD4   35      4       33713   33717   33714   33710   0.      0.
CQUAD4   36      4       33717   33720   33721   33714   0.      0.
CQUAD4   37      4       33720   33724   33725   33721   0.      0.
CQUAD4   38      4       33724   33728   33729   33725   0.      0.
CQUAD4   39      4       33728   33731   33595   33729   0.      0.
CQUAD4   40      4       33731   33561   33560   33595   0.      0.
CQUAD4   79      4       33560   33561   33574   33575   0.      0.
CQUAD4   80      4       33595   33731   33730   33594   0.      0.
CQUAD4   81      4       33729   33728   33727   33726   0.      0.
CQUAD4   82      4       33725   33724   33723   33722   0.      0.
CQUAD4   83      4       33721   33720   33719   33718   0.      0.
CQUAD4   84      4       33714   33717   33716   33715   0.      0.
CQUAD4   85      4       33710   33713   33712   33711   0.      0.
CQUAD4   86      4       33558   33559   33572   33573   0.      0.
CQUAD4   147     4       33573   33711   33712   33572   0.      0.
CQUAD4   148     4       33711   33715   33716   33712   0.      0.
CQUAD4   149     4       33715   33718   33719   33716   0.      0.
CQUAD4   150     4       33718   33722   33723   33719   0.      0.
CQUAD4   151     4       33722   33726   33727   33723   0.      0.
CQUAD4   152     4       33726   33594   33730   33727   0.      0.
CQUAD4   153     4       33594   33575   33574   33730   0.      0.
$ Elements and Element Properties for region : pshell.5
PSHELL   5       1      .00254   1               1
$ Pset: "pshell.5" will be imported as: "pshell.5"
CQUAD4   41      5       33561   33735   33732   33560   0.      0.
CQUAD4   42      5       33735   33592   33736   33732   0.      0.
CQUAD4   43      5       33592   33738   33739   33736   0.      0.
CQUAD4   44      5       33738   33742   33743   33739   0.      0.
CQUAD4   45      5       33742   33746   33747   33743   0.      0.
CQUAD4   46      5       33746   33752   33753   33747   0.      0.
CQUAD4   47      5       33752   33756   33757   33753   0.      0.
CQUAD4   48      5       33756   33562   33563   33757   0.      0.
CQUAD4   71      5       33563   33562   33577   33576   0.      0.
CQUAD4   72      5       33757   33756   33755   33754   0.      0.
CQUAD4   73      5       33753   33752   33751   33750   0.      0.
CQUAD4   74      5       33747   33746   33749   33748   0.      0.
CQUAD4   75      5       33743   33742   33745   33744   0.      0.
CQUAD4   76      5       33739   33738   33741   33740   0.      0.
CQUAD4   77      5       33736   33592   33593   33737   0.      0.
CQUAD4   78      5       33732   33735   33734   33733   0.      0.
CQUAD4   154     5       33575   33733   33734   33574   0.      0.
CQUAD4   155     5       33733   33737   33593   33734   0.      0.
CQUAD4   156     5       33737   33740   33741   33593   0.      0.
CQUAD4   157     5       33740   33744   33745   33741   0.      0.
$ ... 4 like lines cut
$ Elements and Element Properties for region : pshell.6
PSHELL   6       1      .001651  1               1
$ Pset: "pshell.6" will be imported as: "pshell.6"
CQUAD4   49      6       33562   33760   33761   33563   0.      0.
CQUAD4   50      6       33760   33597   33763   33761   0.      0.
CQUAD4   51      6       33597   33766   33767   33763   0.      0.
CQUAD4   52      6       33766   33770   33771   33767   0.      0.
CQUAD4   53      6       33770   33774   33775   33771   0.      0.
CQUAD4   54      6       33774   33778   33779   33775   0.      0.
CQUAD4   55      6       33778   33781   33782   33779   0.      0.
CQUAD4   56      6       33781   33565   33564   33782   0.      0.
CQUAD4   63      6       33564   33565   33579   33578   0.      0.
CQUAD4   64      6       33782   33781   33780   33783   0.      0.
CQUAD4   65      6       33779   33778   33777   33776   0.      0.
CQUAD4   66      6       33775   33774   33773   33772   0.      0.
CQUAD4   67      6       33771   33770   33769   33768   0.      0.
CQUAD4   68      6       33767   33766   33765   33764   0.      0.
CQUAD4   69      6       33763   33597   33596   33762   0.      0.
CQUAD4   70      6       33761   33760   33759   33758   0.      0.
CQUAD4   162     6       33576   33758   33759   33577   0.      0.
CQUAD4   163     6       33758   33762   33596   33759   0.      0.
CQUAD4   164     6       33762   33764   33765   33596   0.      0.
CQUAD4   165     6       33764   33768   33769   33765   0.      0.
$ ... 4 like lines cut
$ Elements and Element Properties for region : pshell.7
PSHELL   7       1      .01905   1               1
$ Pset: "pshell.7" will be imported as: "pshell.7"
CQUAD4   170     7       33566   33602   33603   33553   0.      0.
CQUAD4   171     7       33602   33607   33608   33603   0.      0.
CQUAD4   172     7       33607   33611   33612   33608   0.      0.
CQUAD4   173     7       33611   33617   33614   33612   0.      0.
CQUAD4   174     7       33617   33621   33618   33614   0.      0.
CQUAD4   175     7       33621   33623   33624   33618   0.      0.
CQUAD4   176     7       33623   33626   33627   33624   0.      0.
CQUAD4   177     7       33626   33629   33630   33627   0.      0.
CQUAD4   178     7       33629   33580   33581   33630   0.      0.
CQUAD4   275     7       33582   33622   33625   33583   0.      0.
CQUAD4   276     7       33622   33620   33619   33625   0.      0.
CQUAD4   277     7       33620   33616   33615   33619   0.      0.
CQUAD4   278     7       33616   33610   33613   33615   0.      0.
CQUAD4   279     7       33610   33606   33609   33613   0.      0.
CQUAD4   280     7       33606   33605   33604   33609   0.      0.
CQUAD4   281     7       33605   33569   33554   33604   0.      0.
$ Elements and Element Properties for region : pshell.8
PSHELL   8       1      .01524   1               1
$ Pset: "pshell.8" will be imported as: "pshell.8"
CQUAD4   179     8       33580   33635   33636   33581   0.      0.
CQUAD4   180     8       33635   33639   33640   33636   0.      0.
CQUAD4   181     8       33639   33643   33644   33640   0.      0.
CQUAD4   182     8       33643   33647   33648   33644   0.      0.
CQUAD4   183     8       33647   33567   33552   33648   0.      0.
CQUAD4   184     8       33567   33651   33652   33552   0.      0.
CQUAD4   185     8       33651   33655   33656   33652   0.      0.
CQUAD4   186     8       33655   33658   33659   33656   0.      0.
CQUAD4   187     8       33658   33661   33662   33659   0.      0.
CQUAD4   188     8       33661   33601   33600   33662   0.      0.
CQUAD4   189     8       33601   33665   33666   33600   0.      0.
CQUAD4   190     8       33665   33669   33670   33666   0.      0.
CQUAD4   191     8       33669   33673   33674   33670   0.      0.
CQUAD4   265     8       33587   33654   33657   33586   0.      0.
CQUAD4   266     8       33654   33650   33653   33657   0.      0.
CQUAD4   267     8       33650   33568   33555   33653   0.      0.
CQUAD4   268     8       33568   33646   33649   33555   0.      0.
CQUAD4   269     8       33646   33642   33645   33649   0.      0.
CQUAD4   270     8       33642   33638   33641   33645   0.      0.
CQUAD4   271     8       33638   33634   33637   33641   0.      0.
CQUAD4   272     8       33634   33633   33632   33637   0.      0.
CQUAD4   273     8       33633   33628   33631   33632   0.      0.
CQUAD4   274     8       33628   33582   33583   33631   0.      0.
$ Elements and Element Properties for region : pshell.9
PSHELL   9       1      .0127    1               1
$ Pset: "pshell.9" will be imported as: "pshell.9"
CQUAD4   192     9       33673   33676   33677   33674   0.      0.
CQUAD4   193     9       33676   33570   33556   33677   0.      0.
CQUAD4   194     9       33570   33681   33682   33556   0.      0.
CQUAD4   195     9       33681   33686   33687   33682   0.      0.
CQUAD4   196     9       33686   33689   33690   33687   0.      0.
CQUAD4   197     9       33689   33692   33693   33690   0.      0.
CQUAD4   198     9       33692   33696   33697   33693   0.      0.
CQUAD4   199     9       33696   33699   33700   33697   0.      0.
CQUAD4   200     9       33699   33703   33704   33700   0.      0.
CQUAD4   201     9       33703   33707   33708   33704   0.      0.
CQUAD4   254     9       33590   33688   33691   33591   0.      0.
CQUAD4   255     9       33688   33685   33684   33691   0.      0.
CQUAD4   256     9       33685   33680   33683   33684   0.      0.
CQUAD4   257     9       33680   33571   33557   33683   0.      0.
CQUAD4   258     9       33571   33679   33678   33557   0.      0.
CQUAD4   259     9       33679   33672   33675   33678   0.      0.
CQUAD4   260     9       33672   33668   33671   33675   0.      0.
CQUAD4   261     9       33668   33664   33667   33671   0.      0.
CQUAD4   262     9       33664   33598   33599   33667   0.      0.
CQUAD4   263     9       33598   33660   33663   33599   0.      0.
CQUAD4   264     9       33660   33587   33586   33663   0.      0.
$ Elements and Element Properties for region : pshell.10
PSHELL   10      1      .009525  1               1
$ Pset: "pshell.10" will be imported as: "pshell.10"
CQUAD4   202     10      33707   33572   33559   33708   0.      0.
CQUAD4   203     10      33572   33712   33713   33559   0.      0.
CQUAD4   204     10      33712   33716   33717   33713   0.      0.
CQUAD4   205     10      33716   33719   33720   33717   0.      0.
CQUAD4   206     10      33719   33723   33724   33720   0.      0.
CQUAD4   207     10      33723   33727   33728   33724   0.      0.
CQUAD4   208     10      33727   33730   33731   33728   0.      0.
CQUAD4   209     10      33730   33574   33561   33731   0.      0.
CQUAD4   210     10      33574   33734   33735   33561   0.      0.
CQUAD4   211     10      33734   33593   33592   33735   0.      0.
CQUAD4   243     10      33594   33726   33729   33595   0.      0.
CQUAD4   244     10      33726   33722   33725   33729   0.      0.
CQUAD4   245     10      33722   33718   33721   33725   0.      0.
CQUAD4   246     10      33718   33715   33714   33721   0.      0.
CQUAD4   247     10      33715   33711   33710   33714   0.      0.
CQUAD4   248     10      33711   33573   33558   33710   0.      0.
CQUAD4   249     10      33573   33706   33709   33558   0.      0.
CQUAD4   250     10      33706   33702   33705   33709   0.      0.
CQUAD4   251     10      33702   33698   33701   33705   0.      0.
CQUAD4   252     10      33698   33695   33694   33701   0.      0.
CQUAD4   253     10      33695   33590   33591   33694   0.      0.
$ Elements and Element Properties for region : pshell.11
PSHELL   11      1      .00508   1               1
$ Pset: "pshell.11" will be imported as: "pshell.11"
CQUAD4   212     11      33593   33741   33738   33592   0.      0.
CQUAD4   213     11      33741   33745   33742   33738   0.      0.
CQUAD4   214     11      33745   33749   33746   33742   0.      0.
CQUAD4   215     11      33749   33751   33752   33746   0.      0.
CQUAD4   216     11      33751   33755   33756   33752   0.      0.
CQUAD4   217     11      33755   33577   33562   33756   0.      0.
CQUAD4   218     11      33577   33759   33760   33562   0.      0.
CQUAD4   219     11      33759   33596   33597   33760   0.      0.
CQUAD4   234     11      33576   33754   33757   33563   0.      0.
CQUAD4   235     11      33754   33750   33753   33757   0.      0.
CQUAD4   236     11      33750   33748   33747   33753   0.      0.
CQUAD4   237     11      33748   33744   33743   33747   0.      0.
CQUAD4   238     11      33744   33740   33739   33743   0.      0.
CQUAD4   239     11      33740   33737   33736   33739   0.      0.
CQUAD4   240     11      33737   33733   33732   33736   0.      0.
CQUAD4   241     11      33733   33575   33560   33732   0.      0.
CQUAD4   242     11      33575   33594   33595   33560   0.      0.
$ Elements and Element Properties for region : pshell.12
PSHELL   12      1      .00254   1               1
$ Pset: "pshell.12" will be imported as: "pshell.12"
CQUAD4   220     12      33596   33765   33766   33597   0.      0.
CQUAD4   221     12      33765   33769   33770   33766   0.      0.
CQUAD4   222     12      33769   33773   33774   33770   0.      0.
CQUAD4   223     12      33773   33777   33778   33774   0.      0.
CQUAD4   224     12      33777   33780   33781   33778   0.      0.
CQUAD4   225     12      33780   33579   33565   33781   0.      0.
CQUAD4   226     12      33578   33783   33782   33564   0.      0.
CQUAD4   227     12      33783   33776   33779   33782   0.      0.
CQUAD4   228     12      33776   33772   33775   33779   0.      0.
CQUAD4   229     12      33772   33768   33771   33775   0.      0.
CQUAD4   230     12      33768   33764   33767   33771   0.      0.
CQUAD4   231     12      33764   33762   33763   33767   0.      0.
CQUAD4   232     12      33762   33758   33761   33763   0.      0.
CQUAD4   233     12      33758   33576   33563   33761   0.      0.
$ Referenced Material Records
$ Material Record : alu
$ Description of Material :
MAT1     1      6.89+10 2.63+10 .31     2795.67
$,Nodes,of,the,Entire,Model
GRID,33566,,{x33566},{y33566},{z33566}
GRID,33602,,{x33602},{y33602},{z33602}
GRID,33607,,{x33607},{y33607},{z33607}
GRID,33611,,{x33611},{y33611},{z33611}
GRID,33617,,{x33617},{y33617},{z33617}
GRID,33621,,{x33621},{y33621},{z33621}
GRID,33623,,{x33623},{y33623},{z33623}
GRID,33626,,{x33626},{y33626},{z33626}
GRID,33629,,{x33629},{y33629},{z33629}
GRID,33580,,{x33580},{y33580},{z33580}
GRID,33635,,{x33635},{y33635},{z33635}
GRID,33639,,{x33639},{y33639},{z33639}
GRID,33643,,{x33643},{y33643},{z33643}
GRID,33647,,{x33647},{y33647},{z33647}
GRID,33567,,{x33567},{y33567},{z33567}
GRID,33651,,{x33651},{y33651},{z33651}
GRID,33655,,{x33655},{y33655},{z33655}
GRID,33658,,{x33658},{y33658},{z33658}
GRID,33661,,{x33661},{y33661},{z33661}
GRID,33601,,{x33601},{y33601},{z33601}
$ ... 208 like lines cut
$ Displacement Constraints of Load Set : spc1.1
SPC1     1       123     33553   33554   33566   33569   33618   33619

$GRAV,202,0,{n},0.,0.,-9.81

$LOAD,203,1.0,1.0,201,1.0,202
LOAD,203,1.0,1.0,201

FORCE,201,33566,0,1.0,{Fx33566},{Fy33566},{Fz33566}
FORCE,201,33602,0,1.0,{Fx33602},{Fy33602},{Fz33602}
FORCE,201,33607,0,1.0,{Fx33607},{Fy33607},{Fz33607}
FORCE,201,33611,0,1.0,{Fx33611},{Fy33611},{Fz33611}
FORCE,201,33617,0,1.0,{Fx33617},{Fy33617},{Fz33617}
FORCE,201,33621,0,1.0,{Fx33621},{Fy33621},{Fz33621}
FORCE,201,33623,0,1.0,{Fx33623},{Fy33623},{Fz33623}
FORCE,201,33626,0,1.0,{Fx33626},{Fy33626},{Fz33626}
FORCE,201,33629,0,1.0,{Fx33629},{Fy33629},{Fz33629}
FORCE,201,33580,0,1.0,{Fx33580},{Fy33580},{Fz33580}
FORCE,201,33635,0,1.0,{Fx33635},{Fy33635},{Fz33635}
FORCE,201,33639,0,1.0,{Fx33639},{Fy33639},{Fz33639}
FORCE,201,33643,0,1.0,{Fx33643},{Fy33643},{Fz33643}
FORCE,201,33647,0,1.0,{Fx33647},{Fy33647},{Fz33647}
FORCE,201,33567,0,1.0,{Fx33567},{Fy33567},{Fz33567}
FORCE,201,33651,0,1.0,{Fx33651},{Fy33651},{Fz33651}
FORCE,201,33655,0,1.0,{Fx33655},{Fy33655},{Fz33655}
FORCE,201,33658,0,1.0,{Fx33658},{Fy33658},{Fz33658}
FORCE,201,33661,0,1.0,{Fx33661},{Fy33661},{Fz33661}
FORCE,201,33601,0,1.0,{Fx33601},{Fy33601},{Fz33601}
$ ... 208 like lines cut

ENDDATA

$List of nodes belonging to the outer skin
$33566
$33602
$33607
$33611
$33617
$33621
$33623
$33626
$33629
$33580
$33635
$33639
$33643
$33647
$33567
$33651
$33655
$33658
$33661
$33601
$ ... 208 like lines cut